/*--------------------------------*- C++ -*----------------------------------*\
| =========                 |                                                 |
| \\      /  F ield         | foam-extend: Open Source CFD                    |
|  \\    /   O peration     | Version:     3.2                                |
|   \\  /    A nd           | Web:         http://www.foam-extend.org         |
|    \\/     M anipulation  |                                                 |
\*---------------------------------------------------------------------------*/
FoamFile
{
    version     2.0;
    format      ascii;
    class       volScalarField;
    location    "0";
    object      omega;
}
// * * * * * * * * * * * * * * * * * * * * * * * * * * * * * * * * * * * * * //

dimensions      [0 0 -1 0 0 0 0];

internalField   uniform 10;

boundaryField
{
    walls
    {
        type            compressible::omegaWallFunction;
        Cmu             0.09;
        kappa           0.41;
        E               9.8;
        value           $internalField;
    }
    inlet
    {
        type            fixedValue;
        value           $internalField;
    }
    outlet_ur
    {
        type            inletOutlet;
        inletValue      uniform 10;
        value           $internalField;
    }
    outlet_wr
    {
        type            inletOutlet;
        inletValue      uniform 10;
        value           $internalField;
    }

}

// ************************************************************************* //
