/*--------------------------------*- C++ -*----------------------------------*\
| =========                 |                                                 |
| \\      /  F ield         | OpenFOAM: The Open Source CFD Toolbox           |
|  \\    /   O peration     | Version:  2.0.1                                 |
|   \\  /    A nd           | Web:      www.OpenFOAM.com                      |
|    \\/     M anipulation  |                                                 |
\*---------------------------------------------------------------------------*/
FoamFile
{
    version     2.0;
    format      ascii;
    class       dictionary;
    location    "system";
    object      refineMeshDict;
}
// * * * * * * * * * * * * * * * * * * * * * * * * * * * * * * * * * * * * * //

set             c0;

coordinateSystem patchLocal;

globalCoeffs
{
    tan1            ( 1 0 0 );
    tan2            ( 0 1 0 );
    normal          ( 0 0 1 );
}

patchLocalCoeffs
{
    patch	   walls;
    tan1	   ( 1 0 0 );
    tan2	   ( 0 1 0 );
}

directions      ( tan2 tan1 );

useHexTopology  false;

geometricCut    true;

writeMesh       true;



// ************************************************************************* //
